OPT_V8/Brussels_test_1203-1157/powerflow_results_t11.txt
Pandapower Network Debug Info
==================================================

BUS:
       vm_pu  va_degree          p_mw    q_mvar
0   0.995752   0.311232 -3.875297e-05  0.001143
1   0.993086   0.507346 -7.929769e-06  0.002286
2   0.990639   0.687994  0.000000e+00  0.003429
3   0.993351   0.488054  0.000000e+00  0.004572
4   0.993192   0.501158 -1.789948e-05  0.005715
5   0.995019   0.366206 -1.849344e-05  0.006858
6   0.994238   0.423838  0.000000e+00  0.001143
7   0.998621   0.093973  9.069337e-05  0.002286
8   0.998654   0.098490 -6.322932e-06  0.003429
9   0.999944   0.004146 -9.929465e-07  0.011430
10  0.999937   0.004599 -6.661558e-08  0.010287
11  0.999933   0.004952  0.000000e+00  0.012573
12  0.999888   0.008219 -2.569348e-08  0.006858
13  0.999874   0.009191 -6.056032e-08  0.011430
14  0.999879   0.008871 -1.489597e-07  0.013716
15  0.999964   0.002627  0.000000e+00  0.000000
16  0.999964   0.002634  0.000000e+00  0.000000
17  0.999889   0.008083  0.000000e+00  0.000000
18  0.999889   0.008094  0.000000e+00  0.000000
19  1.000000   0.000000 -8.220709e-05 -0.050805
20  1.000000   0.000007  0.000000e+00  0.000000
21  1.000000   0.000000 -1.852671e-04 -0.056525
22  1.000000   0.000008  0.000000e+00  0.000000
--------------------------------------------------

LINE:
       p_from_mw  q_from_mvar       p_to_mw  q_to_mvar         pl_mw       ql_mvar  i_from_ka   i_to_ka      i_ka  vm_from_pu  va_from_degree  vm_to_pu  va_to_degree  loading_percent
0   7.220117e-05     0.046805 -7.005840e-05  -0.046803  2.142774e-06  1.670756e-06   0.001802  0.001802  0.001802    1.000000        0.000007  0.999964      0.002627         0.783266
1   1.752597e-04     0.052525 -1.678386e-04  -0.052519  7.421158e-06  5.786399e-06   0.002022  0.002022  0.002022    1.000000        0.000008  0.999889      0.008083         0.879004
2   1.077944e-07     0.034290  8.015079e-07  -0.034289  9.093023e-07  7.089980e-07   0.001320  0.001320  0.001320    0.999964        0.002627  0.999944      0.004146         0.573859
3  -9.425934e-09     0.006858  2.569366e-08  -0.006858  1.626773e-08  1.268421e-08   0.000264  0.000264  0.000264    0.999889        0.008083  0.999888      0.008219         0.114778
4   2.002065e-07     0.025146  1.456127e-07  -0.025146  3.458192e-07  2.696410e-07   0.000968  0.000968  0.000968    0.999889        0.008083  0.999879      0.008871         0.420856
5   5.994987e-05     0.011513  2.051087e-06  -0.011465  6.200096e-05  4.834317e-05   0.016618  0.016618  0.016618    0.999964        0.002634  0.995752      0.311232         7.225327
6   3.282969e-05     0.008041  1.734285e-05  -0.008002  5.017254e-05  3.912035e-05   0.011607  0.011607  0.011607    0.999889        0.008094  0.995019      0.366206         5.046669
7   9.423913e-05     0.002289 -9.069337e-05  -0.002286  3.545761e-06  2.764688e-06   0.003307  0.003307  0.003307    0.999889        0.008094  0.998621      0.093973         1.437670
8   3.057718e-05     0.009187 -1.606360e-05  -0.009175  1.451358e-05  1.131647e-05   0.013261  0.013261  0.013261    0.999889        0.008094  0.998654      0.098490         5.765719
9  -1.070338e-08    -0.022860  1.914388e-07   0.022860  1.807354e-07  1.409224e-07   0.000880  0.000880  0.000880    0.999937        0.004599  0.999944      0.004146         0.382574
10 -1.943509e-13    -0.012573  7.731908e-08   0.012573  7.731888e-08  6.028681e-08   0.000484  0.000484  0.000484    0.999933        0.004952  0.999937      0.004599         0.210416
11  3.347072e-09     0.011430  6.056028e-08  -0.011430  6.390736e-08  4.982962e-08   0.000440  0.000440  0.000440    0.999879        0.008871  0.999874      0.009191         0.191299
12 -2.907966e-06    -0.005723  2.255831e-05   0.005739  1.965034e-05  1.532169e-05   0.008318  0.008318  0.008318    0.993086        0.507346  0.995752      0.311232         3.616707
13  4.245329e-17    -0.004572  1.414358e-05   0.004583  1.414358e-05  1.102798e-05   0.006643  0.006643  0.006643    0.993351        0.488054  0.995752      0.311232         2.888322
14 -2.010043e-16    -0.003429  1.083773e-05   0.003437  1.083773e-05  8.450360e-06   0.004996  0.004996  0.004996    0.990639        0.687994  0.993086      0.507346         2.172171
15  2.238653e-05     0.005746  1.789948e-05  -0.005715  4.028601e-05  3.141167e-05   0.008305  0.008305  0.008305    0.998654        0.098490  0.993192      0.501158         3.610998
16  1.450832e-16    -0.001143  1.150595e-06   0.001144  1.150595e-06  8.971381e-07   0.001659  0.001659  0.001659    0.994238        0.423838  0.995019      0.366206         0.721436
--------------------------------------------------

TRAFO:
    p_hv_mw  q_hv_mvar   p_lv_mw  q_lv_mvar    pl_mw  ql_mvar   i_hv_ka   i_lv_ka  vm_hv_pu  va_hv_degree  vm_lv_pu  va_lv_degree  loading_percent
0  0.000070   0.012513 -0.000060  -0.011513  0.00001    0.001  0.000482  0.016618  0.999964      0.002627  0.999964      0.002634         0.125134
1  0.000168   0.020516 -0.000158  -0.019516  0.00001    0.001  0.000790  0.028173  0.999889      0.008083  0.999889      0.008094         0.205188
2  0.000082   0.050805 -0.000072  -0.046805  0.00001    0.004  0.000419  0.001802  1.000000      0.000000  1.000000      0.000007         0.127012
3  0.000185   0.056525 -0.000175  -0.052525  0.00001    0.004  0.000466  0.002022  1.000000      0.000000  1.000000      0.000008         0.141314
--------------------------------------------------
